/*--------------------------------*- C++ -*----------------------------------*\
| =========                 |                                                 |
| \\      /  F ield         | foam-extend: Open Source CFD                    |
|  \\    /   O peration     | Version:     4.1                                |
|   \\  /    A nd           | Web:         http://www.foam-extend.org         |
|    \\/     M anipulation  |                                                 |
\*---------------------------------------------------------------------------*/
FoamFile
{
    version     2.0;
    format      ascii;
    class       dictionary;
    location    "constant";
    object      materialProperties;
}
// * * * * * * * * * * * * * * * * * * * * * * * * * * * * * * * * * * * * * //
#include "$FOAM_CASE/caseInfo"

E              E [ 1 -1 -2 0 0 0 0 ] $E; // Elastic modulus

E2             E2 [ 1 -1 -2 0 0 0 0 ] $E2;

nu             nu [ 0 0 0 0 0 0 0 ]  $nu; //Poisson ratio

k              k [ 0 1 -1 0 0 0 0 ] $k; // Permeability

K              K [ 1 -1 -2 0 0 0 0 ] $K; // True Bulk modulus

Sr             Sr [ 0 0 0 0 0 0 0 ] $Sr; // Degree of saturation

p0             p0 [ 1 -1 -2 0 0 0 0 ] $p0; // Pressure at rest

gamma          gamma [ 1 -2 -2 0 0 0 0 ] $gamma; // Specific weight of water

n1             n1 [ 0 0 0 0 0 0 0 ] $n1; // Porosity of soil (initial)

n2             n2 [ 0 0 0 0 0 0 0 ] $n2; // Porosity of compacted soil (final)

k0             k0 [0 0 0 0 0 0 0 ] $k0; // Coeff of lateral stress

relDensity     relDensity [0 0 0 0 0 0 0] $relDensity; // Relative density of the soil (initial)

relDensity2    relDensity2 [0 0 0 0 0 0 0] 0.86; // Relative density of the compacted soil (Final)

emax           emax [0 0 0 0 0 0 0] $emax; // Max void ratio

emin           emin [0 0 0 0 0 0 0] $emin; // min voil ratio

gammaD         gammaD [1 -2 -2 0 0 0 0 ] $gammaD; //Submerged specific weight of soil

rhos           rhos [ 1 -3 0 0 0 0 0 ] $rhos; // Density of soil grains

rhof           rhof [ 1 -3 0 0 0 0 0 ] $rhof; // Density of water

g              g [ 0 1 -2 0 0 0 0 ] (0 0 -9.81); // Gravity

vis            vis [1 -1 -1 0 0 0 0] $vis; // Viscosity of water

C              C [1 -1 -1 0 0 0 0] $C; // Coeff for calculating viscosty  vis(with grains) = vis + C*log(1-alpha)

V0             V0 [0 1 -1 0 0 0 0] (0 0 $V0);// Settling velocity Vdj = V0*(1-alpha)^q

q              q [0 0 0 0 0 0 0] $q; // Coeff in calculating Vdj

sg             sg [0 0 0 0 0 0 0 ] $sg;// Specific gravity of soil

wh             wh [0 1 0 0 0 0 0 ] $wh; // Water height

steady         $steady; // if it need to be run in steady

iniliq         no; // to initialize liquefaction initially

planeStress    $planeStress; // Plane stress or plane strain condition

// ************************************************************************* //
