/*--------------------------------*- C++ -*----------------------------------*\
| =========                 |                                                 |
| \\      /  F ield         | OpenFOAM: The Open Source CFD Toolbox           |
|  \\    /   O peration     | Version:  1.7.1                                 |
|   \\  /    A nd           | Web:      www.OpenFOAM.com                      |
|    \\/     M anipulation  |                                                 |
\*---------------------------------------------------------------------------*/
FoamFile
{
    version     2.0;
    format      ascii;
    class       dictionary;
    location    "constant";
    object      materialProperties;
}
// * * * * * * * * * * * * * * * * * * * * * * * * * * * * * * * * * * * * * //

E              E [ 1 -1 -2 0 0 0 0 ] 10e8;

nu             nu [ 0 0 0 0 0 0 0 ] 0.29;

k              k [ 0 1 -1 0 0 0 0 ] 1.45e-5;

K              K [ 1 -1 -2 0 0 0 0 ] 2e9;

Sr             Sr [ 0 0 0 0 0 0 0 ] 1;

p0             p0 [ 1 -1 -2 0 0 0 0 ] 5395.5;

gamma          gamma [ 1 -2 -2 0 0 0 0 ] 9810;

n           	n [ 0 0 0 0 0 0 0 ] 0.5;

//emax           emax [ 0 0 0 0 0 0 0 ] 1.13;

//emin           emin [ 0 0 0 0 0 0 0 ] 0.44;

k0             k0 [0 0 0 0 0 0 0 ] 0.41;

relDensity     relDensity [0 0 0 0 0 0 0 ] 0.25;

gammaD         gammaD [1 -2 -2 0 0 0 0 ]8110.2;

rhof           rhof [1 -3 0 0 0 0 0] 1000;

rhos           rhos [1 -3 0 0 0 0 0] 2656 ;

g              g [0 1 -2 0 0 0 0]  9.81 ;

wd             wd   [ 0 1 0 0 0 0 0 ] 0.5;

foundationWidth  foundationWidth   [ 0 1 0 0 0 0 0 ] 0.15;

QbyBL          QbyBL    [1 -1 -2 0 0 0 0] 193.75;

Q              Q    [1 -1 -2 0 0 0 0] 34.3;

a              a   [ 1 -1 -2 0 0 0 0 ] 1623;

b              b   [ 0  0 0 0 0 0 0 ] 36.47e3;

c              c   [ 1 -1 -2 0 0 0 0 ] 0.853e6;

planeStress     no;

structure       yes;

// ************************************************************************* //
