/*--------------------------------*- C++ -*----------------------------------*\
| =========                 |                                                 |
| \\      /  F ield         | OpenFOAM: The Open Source CFD Toolbox           |
|  \\    /   O peration     | Version:  1.7.1                                 |
|   \\  /    A nd           | Web:      www.OpenFOAM.com                      |
|    \\/     M anipulation  |                                                 |
\*---------------------------------------------------------------------------*/
FoamFile
{
    version     2.0;
    format      ascii;
    class       dictionary;
    object      blockMeshDict;
}
// * * * * * * * * * * * * * * * * * * * * * * * * * * * * * * * * * * * * * //

convertToMeters 1;

x1 -0.65;
x2 0.35;
x3 0.65;
x4 1.65;


y1 0;
y2 0.59;


z1 -0.3;
z2 0;
z3 -0.015;
z4 0.05;



vertices
(
    ($x1 $y1 $z1)//0
    ($x4 $y1 $z1)//1
    ($x4 $y2 $z1)//2
    ($x1 $y2 $z1)//3
    ($x1 $y1 $z2)//4
    ($x4 $y1 $z2)//5
    ($x4 $y2 $z2)//6
    ($x1 $y2 $z2)//7
    ($x2 $y1 $z2)//8
    ($x2 $y2 $z2)//9
    ($x3 $y1 $z2)//10
    ($x3 $y2 $z2)//11
    ($x2 $y1 $z1)//12
    ($x2 $y2 $z1)//13
    ($x3 $y1 $z1)//14
    ($x3 $y2 $z1)//15
);

blocks
(
    hex (0 12 13 3 4 8 9 7) (30 1 38) simpleGrading (1 1 1)
    hex (12 14 15 13 8 10 11 9) (30 1 38) simpleGrading (1 1 1)
    hex (14 1 2 15 10 5 6 11) (30 1 38) simpleGrading (1 1 1)
);

edges
(
);

boundary
(
    seaBed
    {
        type wall;
        faces
        (
            (4 8 9 7)
            (10 5 6 11)
        );
    }

    seabedFoundation
    {
        type wall;
        faces
        (
            (8 10 11 9)
        );
    }

    left
    {
        type splitCyclic;
        neighbourPatch  right;
        faces
        (
            (0 4 7 3)
        );
    }

    right
    {
        type splitCyclic;
        neighbourPatch  left;
        faces
        (
            (1 5 6 2)
        );

    }

    soilDomainBottom
    {
        type wall;
        faces
        (
            (0 12 13 3)
            (12 14 15 13)
            (14 1 2 15)
        );
    }

    frontBack
    {
        type empty;
        faces
        (
            (0 4 8 12)
            (3 7 9 13)
            (12 8 10 14)
            (13 9 11 15)
            (14 10 5 1)
            (15 11 6 2)
        );
    }

);

mergePatchPairs
(
);

// ************************************************************************* //
