/*--------------------------------*- C++ -*----------------------------------*\
| =========                 |                                                 |
| \\      /  F ield         | OpenFOAM: The Open Source CFD Toolbox           |
|  \\    /   O peration     | Version:  1.7.1                                 |
|   \\  /    A nd           | Web:      www.OpenFOAM.com                      |
|    \\/     M anipulation  |                                                 |
\*---------------------------------------------------------------------------*/
FoamFile
{
    version     2.0;
    format      ascii;
    class       dictionary;
    object      blockMeshDict;
}
// * * * * * * * * * * * * * * * * * * * * * * * * * * * * * * * * * * * * * //

convertToMeters 1;
z1 -1;
vertices        
(
    (0 0 $z1)
    (0.2 0 $z1)
    (0.2 0.2 $z1)
    (0 0.2 $z1)
    (0 0 0)
    (0.2 0 0)
    (0.2 0.2 0)
    (0 0.2 0)
);

blocks          
(
    hex (0 1 2 3 4 5 6 7) (1 1 20) simpleGrading (1 1 1)
);  

edges           
(
);

boundary
(
    seaBed
    {
         type wall;
         faces
         (
	      (4 5 6 7)	
         );
    }
     
    
    soilDomainBottom
    {
         type wall;
         faces
         (
	      (0 3 2 1 )
         );
    } 
    
    sides
    {
         type empty;
         faces
         (
              (0 4 7 3)
              (1 5 6 2)
              (3 7 6 2)
              (0 1 5 4)	
         );
          
    }
     


);

// ************************************************************************* //
