/*--------------------------------*- C++ -*----------------------------------*\
| =========                 |                                                 |
| \\      /  F ield         | OpenFOAM: The Open Source CFD Toolbox           |
|  \\    /   O peration     | Version:  1.7.1                                 |
|   \\  /    A nd           | Web:      www.OpenFOAM.com                      |
|    \\/     M anipulation  |                                                 |
\*---------------------------------------------------------------------------*/
FoamFile
{
    version     2.0;
    format      ascii;
    class       dictionary;
    location    "constant";
    object      materialProperties;
}
// * * * * * * * * * * * * * * * * * * * * * * * * * * * * * * * * * * * * * //
#include "$FOAM_CASE/caseInfo"

E              E [ 1 -1 -2 0 0 0 0 ] $E;

nu             nu [ 0 0 0 0 0 0 0 ] $nu;

n           	n [ 0 0 0 0 0 0 0 ] $n;

k0             k0 [0 0 0 0 0 0 0 ] $k0;

rhof           rhof [1 -3 0 0 0 0 0] $rhof;

rhos           rhos [1 -3 0 0 0 0 0] $rhos ;

g              g [0 1 -2 0 0 0 0]  9.81 ;

planeStress     no;

// ************************************************************************* //
