// -*- C++ -*-
// File generated by PyFoam - sorry for the ugliness

FoamFile
{
 version 2.0;
 format ascii;
 class dictionary;
 location "constant";
 object materialProperties;
}

k0 k0     [ 0 0 0 0 0 0 0 ]     0.4 ;

gammaD gammaD     [ 1 -2 -2 0 0 0 0 ]     10800.0 ;

relDensity relDensity     [ 0 0 0 0 0 0 0 ]     0.54 ;

alpha alpha     [ 0 0 0 0 0 0 0 ]     0.246 ;

beta beta     [ 0 0 0 0 0 0 0 ]     -0.165 ; 	// ************************************************************************* //

